Version 4
SHEET 1 924 680
WIRE 768 32 672 32
WIRE 768 48 768 32
WIRE 672 64 672 32
WIRE 544 144 224 144
WIRE 544 176 352 176
WIRE 224 192 224 144
WIRE 352 192 352 176
WIRE 544 192 464 192
WIRE 544 208 544 192
WIRE 224 288 224 272
WIRE 352 288 352 272
WIRE 464 288 464 272
WIRE 672 304 672 288
FLAG 224 288 0
FLAG 352 288 0
FLAG 464 288 0
FLAG 672 304 0
FLAG 768 128 0
FLAG 816 160 sum
IOPIN 816 160 Out
FLAG 816 192 cout
IOPIN 816 192 Out
SYMBOL fulladderother 672 176 R0
SYMATTR InstName X3
SYMBOL voltage 224 176 R0
WINDOW 123 0 0 Left 0
WINDOW 39 0 0 Left 0
SYMATTR InstName V1
SYMATTR Value PULSE(0 5 0 5ns 5ns 10m 20m)
SYMBOL voltage 768 32 R0
WINDOW 123 0 0 Left 0
WINDOW 39 0 0 Left 0
SYMATTR InstName V4
SYMATTR Value 5
SYMBOL voltage 352 176 R0
WINDOW 123 0 0 Left 0
WINDOW 39 0 0 Left 0
SYMATTR InstName V2
SYMATTR Value PULSE(0 5 0 5ns 5ns 15m 30m)
SYMBOL voltage 464 176 R0
WINDOW 123 0 0 Left 0
WINDOW 39 0 0 Left 0
SYMATTR InstName V3
SYMATTR Value PULSE(0 5 0 5ns 5ns 20m 40m)
TEXT 184 328 Left 2 !.tran 160m
