Version 4
SHEET 1 880 680
WIRE -8352 -10992 -10192 -10992
WIRE -8288 -10976 -9424 -10976
WIRE -8976 -10960 -11664 -10960
WIRE -8992 -10944 -11824 -10944
WIRE -9024 -10928 -12032 -10928
WIRE -8304 -10912 -9632 -10912
WIRE -9104 -10896 -12224 -10896
WIRE -8320 -10880 -9824 -10880
WIRE -8800 -10864 -12432 -10864
WIRE -10992 -10848 -11232 -10848
WIRE -8336 -10848 -10032 -10848
WIRE -10976 -10832 -11104 -10832
WIRE -8560 -10832 -10400 -10832
WIRE -9216 -10816 -10592 -10816
WIRE -8848 -10800 -10800 -10800
WIRE -11360 -10784 -11456 -10784
WIRE -11232 -10784 -11232 -10848
WIRE -11232 -10784 -11264 -10784
WIRE -11200 -10784 -11232 -10784
WIRE -11104 -10784 -11104 -10832
WIRE -11104 -10784 -11168 -10784
WIRE -11056 -10784 -11104 -10784
WIRE -12432 -10736 -12432 -10864
WIRE -12224 -10736 -12224 -10896
WIRE -12032 -10736 -12032 -10928
WIRE -11824 -10736 -11824 -10944
WIRE -11664 -10736 -11664 -10960
WIRE -11456 -10736 -11456 -10784
WIRE -11264 -10736 -11264 -10784
WIRE -11056 -10736 -11056 -10784
WIRE -10800 -10736 -10800 -10800
WIRE -10592 -10736 -10592 -10816
WIRE -10400 -10736 -10400 -10832
WIRE -10192 -10736 -10192 -10992
WIRE -10032 -10736 -10032 -10848
WIRE -9824 -10736 -9824 -10880
WIRE -9632 -10736 -9632 -10912
WIRE -9424 -10736 -9424 -10976
WIRE -13520 -10624 -13648 -10624
WIRE -13120 -10624 -13520 -10624
WIRE -12832 -10624 -13120 -10624
WIRE -12528 -10624 -12832 -10624
WIRE -12432 -10624 -12432 -10656
WIRE -12432 -10624 -12528 -10624
WIRE -12240 -10624 -12432 -10624
WIRE -12224 -10624 -12224 -10656
WIRE -12224 -10624 -12240 -10624
WIRE -12032 -10624 -12032 -10656
WIRE -12032 -10624 -12224 -10624
WIRE -11920 -10624 -12032 -10624
WIRE -11824 -10624 -11824 -10656
WIRE -11824 -10624 -11920 -10624
WIRE -11664 -10624 -11664 -10656
WIRE -11664 -10624 -11824 -10624
WIRE -11632 -10624 -11664 -10624
WIRE -11456 -10624 -11456 -10656
WIRE -11456 -10624 -11632 -10624
WIRE -11328 -10624 -11456 -10624
WIRE -11264 -10624 -11264 -10656
WIRE -11264 -10624 -11328 -10624
WIRE -11056 -10624 -11056 -10656
WIRE -11056 -10624 -11264 -10624
WIRE -11024 -10624 -11056 -10624
WIRE -10800 -10624 -10800 -10656
WIRE -10800 -10624 -11024 -10624
WIRE -10736 -10624 -10800 -10624
WIRE -10592 -10624 -10592 -10656
WIRE -10592 -10624 -10736 -10624
WIRE -10448 -10624 -10592 -10624
WIRE -10400 -10624 -10400 -10656
WIRE -10400 -10624 -10448 -10624
WIRE -10192 -10624 -10192 -10656
WIRE -10192 -10624 -10400 -10624
WIRE -10144 -10624 -10192 -10624
WIRE -10032 -10624 -10032 -10656
WIRE -10032 -10624 -10144 -10624
WIRE -9840 -10624 -10032 -10624
WIRE -9824 -10624 -9824 -10656
WIRE -9824 -10624 -9840 -10624
WIRE -9632 -10624 -9632 -10656
WIRE -9632 -10624 -9824 -10624
WIRE -9552 -10624 -9632 -10624
WIRE -9424 -10624 -9424 -10656
WIRE -9424 -10624 -9552 -10624
WIRE -9248 -10624 -9424 -10624
WIRE -8944 -10624 -9248 -10624
WIRE -13648 -10608 -13648 -10624
WIRE -12128 -10528 -12720 -10528
WIRE -11536 -10528 -12128 -10528
WIRE -10928 -10528 -11536 -10528
WIRE -10336 -10528 -10928 -10528
WIRE -9744 -10528 -10336 -10528
WIRE -9152 -10528 -9744 -10528
WIRE -8848 -10528 -8848 -10800
WIRE -8848 -10528 -9152 -10528
WIRE -12672 -10496 -13264 -10496
WIRE -11168 -10496 -11168 -10784
WIRE -11168 -10496 -12672 -10496
WIRE -10288 -10480 -11184 -10480
WIRE -10160 -10480 -10288 -10480
WIRE -8992 -10480 -8992 -10944
WIRE -8992 -10480 -10160 -10480
WIRE -12080 -10464 -12960 -10464
WIRE -11200 -10464 -11200 -10784
WIRE -11200 -10464 -12080 -10464
WIRE -10880 -10448 -11776 -10448
WIRE -10768 -10448 -10880 -10448
WIRE -8976 -10448 -8976 -10960
WIRE -8976 -10448 -10768 -10448
WIRE -13008 -10432 -13312 -10432
WIRE -12416 -10432 -13008 -10432
WIRE -11824 -10432 -12416 -10432
WIRE -11232 -10432 -11824 -10432
WIRE -10624 -10432 -11232 -10432
WIRE -10032 -10432 -10624 -10432
WIRE -9440 -10432 -10032 -10432
WIRE -9216 -10432 -9216 -10816
WIRE -9216 -10432 -9440 -10432
WIRE -11488 -10384 -12368 -10384
WIRE -11360 -10384 -11360 -10784
WIRE -11360 -10384 -11488 -10384
WIRE -10464 -10384 -10576 -10384
WIRE -9696 -10384 -10464 -10384
WIRE -9024 -10384 -9024 -10928
WIRE -9024 -10384 -9696 -10384
WIRE -8976 -10352 -9392 -10352
WIRE -8800 -10352 -8800 -10864
WIRE -8800 -10352 -8976 -10352
WIRE -9856 -10304 -9984 -10304
WIRE -9104 -10304 -9104 -10896
WIRE -9104 -10304 -9856 -10304
WIRE -13424 -10288 -13616 -10288
WIRE -13152 -10288 -13424 -10288
WIRE -12848 -10288 -13152 -10288
WIRE -12576 -10288 -12848 -10288
WIRE -12256 -10288 -12576 -10288
WIRE -11984 -10288 -12256 -10288
WIRE -11680 -10288 -11984 -10288
WIRE -11392 -10288 -11680 -10288
WIRE -11072 -10288 -11392 -10288
WIRE -10784 -10288 -11072 -10288
WIRE -10480 -10288 -10784 -10288
WIRE -10176 -10288 -10480 -10288
WIRE -9872 -10288 -10176 -10288
WIRE -9600 -10288 -9872 -10288
WIRE -9264 -10288 -9600 -10288
WIRE -9008 -10288 -9264 -10288
WIRE -8624 -10288 -9008 -10288
WIRE -13616 -10224 -13616 -10288
WIRE -13312 -10224 -13312 -10432
WIRE -13264 -10224 -13264 -10496
WIRE -13008 -10224 -13008 -10432
WIRE -12960 -10224 -12960 -10464
WIRE -12720 -10224 -12720 -10528
WIRE -12672 -10224 -12672 -10496
WIRE -12416 -10224 -12416 -10432
WIRE -12368 -10224 -12368 -10384
WIRE -12128 -10224 -12128 -10528
WIRE -12080 -10224 -12080 -10464
WIRE -11824 -10224 -11824 -10432
WIRE -11776 -10224 -11776 -10448
WIRE -11536 -10224 -11536 -10528
WIRE -11488 -10224 -11488 -10384
WIRE -11232 -10224 -11232 -10432
WIRE -11184 -10224 -11184 -10480
WIRE -10928 -10224 -10928 -10528
WIRE -10880 -10224 -10880 -10448
WIRE -10624 -10224 -10624 -10432
WIRE -10576 -10224 -10576 -10384
WIRE -10336 -10224 -10336 -10528
WIRE -10288 -10224 -10288 -10480
WIRE -10032 -10224 -10032 -10432
WIRE -9984 -10224 -9984 -10304
WIRE -9744 -10224 -9744 -10528
WIRE -9696 -10224 -9696 -10384
WIRE -9440 -10224 -9440 -10432
WIRE -9392 -10224 -9392 -10352
WIRE -9152 -10224 -9152 -10528
WIRE -9104 -10224 -9104 -10304
WIRE -8848 -10224 -8848 -10528
WIRE -8800 -10224 -8800 -10352
WIRE -13616 -10112 -13616 -10144
WIRE -13520 -10080 -13520 -10624
WIRE -13392 -10080 -13520 -10080
WIRE -13152 -10080 -13152 -10288
WIRE -13152 -10080 -13184 -10080
WIRE -13120 -10080 -13120 -10624
WIRE -13088 -10080 -13120 -10080
WIRE -12848 -10080 -12848 -10288
WIRE -12848 -10080 -12880 -10080
WIRE -12832 -10080 -12832 -10624
WIRE -12800 -10080 -12832 -10080
WIRE -12576 -10080 -12576 -10288
WIRE -12576 -10080 -12592 -10080
WIRE -12528 -10080 -12528 -10624
WIRE -12496 -10080 -12528 -10080
WIRE -12256 -10080 -12256 -10288
WIRE -12256 -10080 -12288 -10080
WIRE -12240 -10080 -12240 -10624
WIRE -12208 -10080 -12240 -10080
WIRE -11984 -10080 -11984 -10288
WIRE -11984 -10080 -12000 -10080
WIRE -11920 -10080 -11920 -10624
WIRE -11904 -10080 -11920 -10080
WIRE -11680 -10080 -11680 -10288
WIRE -11680 -10080 -11696 -10080
WIRE -11632 -10080 -11632 -10624
WIRE -11616 -10080 -11632 -10080
WIRE -11392 -10080 -11392 -10288
WIRE -11392 -10080 -11408 -10080
WIRE -11328 -10080 -11328 -10624
WIRE -11312 -10080 -11328 -10080
WIRE -11088 -10080 -11104 -10080
WIRE -11072 -10080 -11072 -10288
WIRE -11072 -10080 -11088 -10080
WIRE -11024 -10080 -11024 -10624
WIRE -11008 -10080 -11024 -10080
WIRE -10784 -10080 -10784 -10288
WIRE -10784 -10080 -10800 -10080
WIRE -10736 -10080 -10736 -10624
WIRE -10704 -10080 -10736 -10080
WIRE -10480 -10080 -10480 -10288
WIRE -10480 -10080 -10496 -10080
WIRE -10448 -10080 -10448 -10624
WIRE -10416 -10080 -10448 -10080
WIRE -10176 -10080 -10176 -10288
WIRE -10176 -10080 -10208 -10080
WIRE -10144 -10080 -10144 -10624
WIRE -10112 -10080 -10144 -10080
WIRE -9872 -10080 -9872 -10288
WIRE -9872 -10080 -9904 -10080
WIRE -9840 -10080 -9840 -10624
WIRE -9824 -10080 -9840 -10080
WIRE -9600 -10080 -9600 -10288
WIRE -9600 -10080 -9616 -10080
WIRE -9584 -10080 -9600 -10080
WIRE -9552 -10080 -9552 -10624
WIRE -9520 -10080 -9552 -10080
WIRE -9264 -10080 -9264 -10288
WIRE -9264 -10080 -9312 -10080
WIRE -9248 -10080 -9248 -10624
WIRE -9232 -10080 -9248 -10080
WIRE -9008 -10080 -9008 -10288
WIRE -9008 -10080 -9024 -10080
WIRE -8992 -10080 -9008 -10080
WIRE -8944 -10080 -8944 -10624
WIRE -8928 -10080 -8944 -10080
WIRE -8624 -10080 -8624 -10288
WIRE -8624 -10080 -8720 -10080
WIRE -12576 -10032 -12576 -10080
WIRE -12496 -10032 -12576 -10032
WIRE -11088 -10016 -11088 -10080
WIRE -11008 -10016 -11088 -10016
WIRE -11360 -10000 -11360 -10384
WIRE -11248 -10000 -11360 -10000
WIRE -10480 -10000 -10480 -10080
WIRE -10480 -10000 -10544 -10000
WIRE -10768 -9984 -10768 -10448
WIRE -10672 -9984 -10768 -9984
WIRE -10176 -9968 -10176 -10080
WIRE -10064 -9968 -10176 -9968
WIRE -8208 -9968 -8816 -9968
WIRE -12688 -9936 -12688 -9968
WIRE -12176 -9936 -12688 -9936
WIRE -10592 -9936 -10592 -9968
WIRE -10368 -9936 -10592 -9936
WIRE -10000 -9936 -10000 -9968
WIRE -9792 -9936 -10000 -9936
WIRE -10896 -9920 -10896 -9968
WIRE -10704 -9920 -10896 -9920
WIRE -11200 -9904 -11200 -9968
WIRE -10720 -9904 -11200 -9904
WIRE -12976 -9888 -12976 -9968
WIRE -12208 -9888 -12976 -9888
WIRE -11504 -9888 -11504 -9968
WIRE -11184 -9888 -11504 -9888
WIRE -11792 -9872 -11792 -9968
WIRE -11216 -9872 -11792 -9872
WIRE -12096 -9856 -12096 -9968
WIRE -11680 -9856 -12096 -9856
WIRE -10160 -9856 -10160 -10480
WIRE -10160 -9856 -10256 -9856
WIRE -12384 -9840 -12384 -9968
WIRE -11744 -9840 -12384 -9840
WIRE -10784 -9840 -11152 -9840
WIRE -11808 -9808 -12768 -9808
WIRE -11392 -9808 -11392 -10080
WIRE -11392 -9808 -11504 -9808
WIRE -10976 -9808 -10976 -10832
WIRE -10800 -9808 -10976 -9808
WIRE -10464 -9808 -10464 -10384
WIRE -9888 -9808 -10464 -9808
WIRE -10304 -9792 -10304 -9968
WIRE -10192 -9792 -10304 -9792
WIRE -9408 -9792 -9408 -9968
WIRE -9232 -9792 -9408 -9792
WIRE -9120 -9792 -9120 -9968
WIRE -9120 -9792 -9216 -9792
WIRE -8976 -9792 -8976 -10352
WIRE -8608 -9792 -8976 -9792
WIRE -10848 -9776 -11648 -9776
WIRE -10192 -9776 -10192 -9792
WIRE -10192 -9776 -10224 -9776
WIRE -8992 -9776 -8992 -10080
WIRE -12496 -9760 -12496 -10032
WIRE -11296 -9760 -12144 -9760
WIRE -9840 -9760 -10192 -9760
WIRE -9712 -9760 -9712 -9968
WIRE -9712 -9760 -9760 -9760
WIRE -10368 -9744 -10368 -9936
WIRE -10304 -9744 -10368 -9744
WIRE -9312 -9744 -9712 -9744
WIRE -10992 -9712 -10992 -10848
WIRE -10992 -9712 -11344 -9712
WIRE -10064 -9712 -10064 -9968
WIRE -10048 -9712 -10064 -9712
WIRE -12000 -9696 -12000 -10080
WIRE -11504 -9696 -11504 -9808
WIRE -11008 -9696 -11008 -10016
WIRE -10544 -9696 -10544 -10000
WIRE -9584 -9696 -9584 -10080
WIRE -10192 -9648 -10192 -9760
WIRE -10160 -9648 -10192 -9648
WIRE -9216 -9648 -9216 -9792
WIRE -9152 -9648 -9216 -9648
WIRE -8464 -9648 -8848 -9648
WIRE -12768 -9632 -12768 -9808
WIRE -12656 -9632 -12768 -9632
WIRE -12272 -9632 -12352 -9632
WIRE -12144 -9632 -12144 -9760
WIRE -12112 -9632 -12144 -9632
WIRE -11648 -9632 -11648 -9776
WIRE -11616 -9632 -11648 -9632
WIRE -11152 -9632 -11152 -9840
WIRE -11120 -9632 -11152 -9632
WIRE -10656 -9632 -10688 -9632
WIRE -9872 -9632 -9920 -9632
WIRE -9712 -9632 -9712 -9744
WIRE -9696 -9632 -9712 -9632
WIRE -11840 -9616 -11872 -9616
WIRE -11328 -9616 -11376 -9616
WIRE -10832 -9616 -10880 -9616
WIRE -10352 -9616 -10416 -9616
WIRE -10224 -9616 -10224 -9776
WIRE -10160 -9616 -10224 -9616
WIRE -9360 -9616 -9456 -9616
WIRE -12176 -9600 -12176 -9936
WIRE -12112 -9600 -12176 -9600
WIRE -11680 -9600 -11680 -9856
WIRE -11616 -9600 -11680 -9600
WIRE -11184 -9600 -11184 -9888
WIRE -11120 -9600 -11184 -9600
WIRE -10704 -9600 -10704 -9920
WIRE -10656 -9600 -10704 -9600
WIRE -9904 -9600 -9920 -9600
WIRE -9760 -9600 -9760 -9760
WIRE -9696 -9600 -9760 -9600
WIRE -11808 -9584 -11808 -9808
WIRE -11808 -9584 -11872 -9584
WIRE -11296 -9584 -11296 -9760
WIRE -11296 -9584 -11376 -9584
WIRE -10848 -9584 -10848 -9776
WIRE -10848 -9584 -10880 -9584
WIRE -10368 -9584 -10416 -9584
WIRE -9392 -9584 -9456 -9584
WIRE -9232 -9584 -9232 -9792
WIRE -9152 -9584 -9232 -9584
WIRE -8752 -9584 -8848 -9584
WIRE -13280 -9568 -13280 -9968
WIRE -12656 -9568 -13280 -9568
WIRE -12288 -9568 -12352 -9568
WIRE -12208 -9568 -12208 -9888
WIRE -12112 -9568 -12208 -9568
WIRE -11744 -9568 -11744 -9840
WIRE -11616 -9568 -11744 -9568
WIRE -11216 -9568 -11216 -9872
WIRE -11120 -9568 -11216 -9568
WIRE -10720 -9568 -10720 -9904
WIRE -10656 -9568 -10720 -9568
WIRE -10304 -9568 -10304 -9744
WIRE -10160 -9568 -10160 -9584
WIRE -10160 -9568 -10304 -9568
WIRE -9792 -9568 -9792 -9936
WIRE -9696 -9568 -9792 -9568
WIRE -9312 -9504 -9312 -9744
WIRE -8752 -9504 -8752 -9584
WIRE -8752 -9504 -9312 -9504
WIRE -11328 -9488 -11328 -9616
WIRE -11328 -9488 -11536 -9488
WIRE -10048 -9488 -10048 -9520
WIRE -10048 -9488 -10064 -9488
WIRE -10800 -9472 -10800 -9808
WIRE -10800 -9472 -11648 -9472
WIRE -10784 -9456 -10784 -9840
WIRE -10368 -9456 -10368 -9584
WIRE -10368 -9456 -10784 -9456
WIRE -9840 -9456 -9840 -9760
WIRE -9392 -9456 -9392 -9584
WIRE -9392 -9456 -9840 -9456
WIRE -10688 -9424 -10688 -9632
WIRE -9904 -9424 -9904 -9600
WIRE -9904 -9424 -10688 -9424
WIRE -13520 -9408 -13520 -10080
WIRE -13360 -9408 -13520 -9408
WIRE -12496 -9408 -12496 -9440
WIRE -12496 -9408 -13360 -9408
WIRE -12000 -9408 -12000 -9504
WIRE -12000 -9408 -12496 -9408
WIRE -11504 -9408 -11504 -9504
WIRE -11504 -9408 -12000 -9408
WIRE -11008 -9408 -11008 -9504
WIRE -11008 -9408 -11504 -9408
WIRE -10544 -9408 -10544 -9504
WIRE -10544 -9408 -11008 -9408
WIRE -10064 -9408 -10064 -9488
WIRE -10064 -9408 -10544 -9408
WIRE -9584 -9408 -9584 -9504
WIRE -9584 -9408 -10064 -9408
WIRE -8992 -9408 -8992 -9456
WIRE -8992 -9408 -9584 -9408
WIRE -10352 -9360 -10352 -9616
WIRE -10352 -9360 -10640 -9360
WIRE -9872 -9344 -9872 -9632
WIRE -9872 -9344 -10176 -9344
WIRE -11344 -9328 -11344 -9712
WIRE -11344 -9328 -12208 -9328
WIRE -10400 -9328 -10464 -9328
WIRE -10256 -9328 -10256 -9856
WIRE -10256 -9328 -10400 -9328
WIRE -9888 -9328 -9888 -9808
WIRE -9888 -9328 -10160 -9328
WIRE -11648 -9312 -11648 -9472
WIRE -11520 -9312 -11648 -9312
WIRE -11248 -9312 -11248 -10000
WIRE -11056 -9312 -11248 -9312
WIRE -10832 -9296 -10832 -9616
WIRE -10832 -9296 -11232 -9296
WIRE -11392 -9280 -11696 -9280
WIRE -11104 -9280 -11392 -9280
WIRE -10800 -9280 -11104 -9280
WIRE -10512 -9280 -10800 -9280
WIRE -10208 -9280 -10512 -9280
WIRE -9920 -9280 -10208 -9280
WIRE -9616 -9280 -9920 -9280
WIRE -8560 -9280 -8560 -10832
WIRE -8560 -9280 -9616 -9280
WIRE -11056 -9264 -11056 -9312
WIRE -10944 -9264 -11056 -9264
WIRE -10160 -9248 -10160 -9328
WIRE -9040 -9248 -10160 -9248
WIRE -10176 -9232 -10176 -9344
WIRE -10048 -9232 -10176 -9232
WIRE -10672 -9216 -10672 -9984
WIRE -10672 -9216 -10928 -9216
WIRE -9856 -9200 -9856 -10304
WIRE -9856 -9200 -9872 -9200
WIRE -9088 -9200 -9856 -9200
WIRE -10672 -9168 -10672 -9216
WIRE -10672 -9168 -10752 -9168
WIRE -9136 -9168 -9568 -9168
WIRE -8608 -9168 -8608 -9792
WIRE -8608 -9168 -9136 -9168
WIRE -12288 -9152 -12288 -9568
WIRE -12288 -9152 -13152 -9152
WIRE -11840 -9152 -11840 -9616
WIRE -11840 -9152 -12096 -9152
WIRE -11696 -9136 -11696 -9280
WIRE -11648 -9136 -11648 -9312
WIRE -11392 -9136 -11392 -9280
WIRE -11344 -9136 -11344 -9328
WIRE -11104 -9136 -11104 -9280
WIRE -11056 -9136 -11056 -9264
WIRE -10800 -9136 -10800 -9280
WIRE -10752 -9136 -10752 -9168
WIRE -10512 -9136 -10512 -9280
WIRE -10464 -9136 -10464 -9328
WIRE -10208 -9136 -10208 -9280
WIRE -10160 -9136 -10160 -9248
WIRE -9920 -9136 -9920 -9280
WIRE -9872 -9136 -9872 -9200
WIRE -9616 -9136 -9616 -9280
WIRE -9568 -9136 -9568 -9168
WIRE -10400 -9120 -10400 -9328
WIRE -10352 -9120 -10400 -9120
WIRE -11776 -8992 -12160 -8992
WIRE -11552 -8992 -11568 -8992
WIRE -11472 -8992 -11504 -8992
WIRE -11248 -8992 -11264 -8992
WIRE -11184 -8992 -11216 -8992
WIRE -10960 -8992 -10976 -8992
WIRE -10880 -8992 -10912 -8992
WIRE -10656 -8992 -10672 -8992
WIRE -10592 -8992 -10624 -8992
WIRE -10368 -8992 -10384 -8992
WIRE -10288 -8992 -10320 -8992
WIRE -10064 -8992 -10080 -8992
WIRE -10000 -8992 -10016 -8992
WIRE -9744 -8992 -9792 -8992
WIRE -9696 -8992 -9728 -8992
WIRE -9456 -8992 -9488 -8992
WIRE -12272 -8896 -12272 -9632
WIRE -12272 -8896 -12544 -8896
WIRE -11664 -8832 -11664 -8880
WIRE -11664 -8832 -13088 -8832
WIRE -10320 -8832 -10320 -8992
WIRE -10240 -8832 -10320 -8832
WIRE -11360 -8800 -11360 -8880
WIRE -11360 -8800 -12528 -8800
WIRE -10928 -8800 -10928 -9216
WIRE -10672 -8800 -10928 -8800
WIRE -11072 -8768 -11072 -8880
WIRE -11072 -8768 -12048 -8768
WIRE -10176 -8768 -10176 -8880
WIRE -10176 -8768 -10576 -8768
WIRE -10016 -8752 -10016 -8992
WIRE -9760 -8752 -10016 -8752
WIRE -9728 -8752 -9728 -8992
WIRE -9728 -8752 -9760 -8752
WIRE -9360 -8752 -9360 -9616
WIRE -9360 -8752 -9616 -8752
WIRE -10912 -8736 -10912 -8992
WIRE -10736 -8736 -10912 -8736
WIRE -11520 -8720 -11520 -9312
WIRE -11520 -8720 -11680 -8720
WIRE -10944 -8720 -10944 -9264
WIRE -10944 -8720 -11152 -8720
WIRE -11504 -8704 -11504 -8992
WIRE -11504 -8704 -11632 -8704
WIRE -10352 -8704 -10352 -9120
WIRE -10208 -8704 -10352 -8704
WIRE -9888 -8704 -9888 -8880
WIRE -9888 -8704 -10112 -8704
WIRE -10480 -8672 -10480 -8880
WIRE -10480 -8672 -11072 -8672
WIRE -13424 -8656 -13424 -10288
WIRE -13280 -8656 -13424 -8656
WIRE -12864 -8656 -13280 -8656
WIRE -12384 -8656 -12864 -8656
WIRE -11888 -8656 -12384 -8656
WIRE -11552 -8656 -11552 -8992
WIRE -11552 -8656 -11888 -8656
WIRE -11392 -8656 -11552 -8656
WIRE -11248 -8656 -11248 -8992
WIRE -11248 -8656 -11392 -8656
WIRE -10960 -8656 -10960 -8992
WIRE -10960 -8656 -11248 -8656
WIRE -10928 -8656 -10960 -8656
WIRE -10656 -8656 -10656 -8992
WIRE -10656 -8656 -10928 -8656
WIRE -10448 -8656 -10656 -8656
WIRE -10368 -8656 -10368 -8992
WIRE -10368 -8656 -10448 -8656
WIRE -10064 -8656 -10064 -8992
WIRE -10064 -8656 -10368 -8656
WIRE -9968 -8656 -10064 -8656
WIRE -9744 -8656 -9744 -8992
WIRE -9744 -8656 -9968 -8656
WIRE -9456 -8656 -9456 -8992
WIRE -9456 -8656 -9744 -8656
WIRE -9376 -8656 -9456 -8656
WIRE -10768 -8640 -10768 -8880
WIRE -10768 -8640 -11520 -8640
WIRE -12864 -8608 -12864 -8656
WIRE -12864 -8608 -12912 -8608
WIRE -11232 -8608 -11232 -9296
WIRE -11104 -8608 -11232 -8608
WIRE -12384 -8576 -12384 -8656
WIRE -11888 -8576 -11888 -8656
WIRE -11392 -8576 -11392 -8656
WIRE -10928 -8576 -10928 -8656
WIRE -10448 -8576 -10448 -8656
WIRE -10048 -8576 -10048 -9232
WIRE -10048 -8576 -10128 -8576
WIRE -9968 -8576 -9968 -8656
WIRE -12912 -8544 -12912 -8608
WIRE -9584 -8528 -9584 -8880
WIRE -9536 -8528 -9584 -8528
WIRE -8976 -8528 -9232 -8528
WIRE -12528 -8512 -12528 -8800
WIRE -12496 -8512 -12528 -8512
WIRE -12048 -8512 -12048 -8768
WIRE -12000 -8512 -12048 -8512
WIRE -11520 -8512 -11520 -8640
WIRE -11504 -8512 -11520 -8512
WIRE -11072 -8512 -11072 -8672
WIRE -11040 -8512 -11072 -8512
WIRE -10576 -8512 -10576 -8768
WIRE -10560 -8512 -10576 -8512
WIRE -10112 -8512 -10112 -8704
WIRE -10080 -8512 -10112 -8512
WIRE -12176 -8496 -12256 -8496
WIRE -11648 -8496 -11760 -8496
WIRE -11184 -8496 -11264 -8496
WIRE -10704 -8496 -10800 -8496
WIRE -10224 -8496 -10320 -8496
WIRE -9776 -8496 -9840 -8496
WIRE -13088 -8480 -13088 -8832
WIRE -13024 -8480 -13088 -8480
WIRE -12544 -8480 -12544 -8896
WIRE -12496 -8480 -12544 -8480
WIRE -12096 -8480 -12096 -9152
WIRE -12000 -8480 -12096 -8480
WIRE -11536 -8480 -11536 -9488
WIRE -11504 -8480 -11536 -8480
WIRE -11104 -8480 -11104 -8608
WIRE -11040 -8480 -11104 -8480
WIRE -10640 -8480 -10640 -9360
WIRE -10560 -8480 -10640 -8480
WIRE -10080 -8480 -10112 -8480
WIRE -12688 -8464 -12784 -8464
WIRE -12224 -8464 -12256 -8464
WIRE -11712 -8464 -11760 -8464
WIRE -11232 -8464 -11264 -8464
WIRE -10768 -8464 -10800 -8464
WIRE -10272 -8464 -10320 -8464
WIRE -9808 -8464 -9840 -8464
WIRE -9616 -8464 -9616 -8752
WIRE -9536 -8464 -9616 -8464
WIRE -9168 -8464 -9232 -8464
WIRE -13152 -8448 -13152 -9152
WIRE -13024 -8448 -13152 -8448
WIRE -12496 -8448 -12528 -8448
WIRE -12000 -8448 -12048 -8448
WIRE -11504 -8448 -11536 -8448
WIRE -11040 -8448 -11072 -8448
WIRE -10560 -8448 -10592 -8448
WIRE -10128 -8448 -10128 -8576
WIRE -10080 -8448 -10128 -8448
WIRE -12720 -8432 -12784 -8432
WIRE -13024 -8416 -13056 -8416
WIRE -12528 -8368 -12528 -8448
WIRE -11712 -8368 -11712 -8464
WIRE -11712 -8368 -12528 -8368
WIRE -11536 -8368 -11536 -8448
WIRE -10768 -8368 -10768 -8464
WIRE -10768 -8368 -11536 -8368
WIRE -10112 -8368 -10112 -8480
WIRE -9168 -8368 -9168 -8464
WIRE -9168 -8368 -10112 -8368
WIRE -11072 -8352 -11072 -8448
WIRE -10272 -8352 -10272 -8464
WIRE -10272 -8352 -11072 -8352
WIRE -12048 -8336 -12048 -8448
WIRE -11232 -8336 -11232 -8464
WIRE -11232 -8336 -12048 -8336
WIRE -10592 -8336 -10592 -8448
WIRE -9808 -8336 -9808 -8464
WIRE -9808 -8336 -10592 -8336
WIRE -13056 -8320 -13056 -8416
WIRE -12224 -8320 -12224 -8464
WIRE -12224 -8320 -13056 -8320
WIRE -12912 -8304 -12912 -8352
WIRE -12864 -8304 -12912 -8304
WIRE -13360 -8256 -13360 -9408
WIRE -12864 -8256 -12864 -8304
WIRE -12864 -8256 -13360 -8256
WIRE -12384 -8256 -12384 -8384
WIRE -12384 -8256 -12864 -8256
WIRE -12160 -8256 -12160 -8992
WIRE -12160 -8256 -12384 -8256
WIRE -11888 -8256 -11888 -8384
WIRE -11888 -8256 -12160 -8256
WIRE -11632 -8256 -11632 -8704
WIRE -11632 -8256 -11888 -8256
WIRE -11392 -8256 -11392 -8384
WIRE -11392 -8256 -11632 -8256
WIRE -11216 -8256 -11216 -8992
WIRE -11216 -8256 -11392 -8256
WIRE -10928 -8256 -10928 -8384
WIRE -10928 -8256 -11216 -8256
WIRE -10736 -8256 -10736 -8736
WIRE -10736 -8256 -10928 -8256
WIRE -10624 -8256 -10624 -8992
WIRE -10624 -8256 -10736 -8256
WIRE -10448 -8256 -10448 -8384
WIRE -10448 -8256 -10624 -8256
WIRE -10240 -8256 -10240 -8832
WIRE -10240 -8256 -10448 -8256
WIRE -9968 -8256 -9968 -8384
WIRE -9968 -8256 -10240 -8256
WIRE -9760 -8256 -9760 -8752
WIRE -9760 -8256 -9968 -8256
WIRE -9376 -8256 -9376 -8336
WIRE -9376 -8256 -9760 -8256
WIRE -12720 -8224 -12720 -8432
WIRE -12720 -8224 -14240 -8224
WIRE -12688 -8208 -12688 -8464
WIRE -12688 -8208 -13744 -8208
WIRE -12656 -8192 -12752 -8192
WIRE -11680 -8192 -11680 -8720
WIRE -11680 -8192 -12656 -8192
WIRE -10704 -8192 -10704 -8496
WIRE -10704 -8192 -11632 -8192
WIRE -11184 -8176 -11184 -8496
WIRE -11184 -8176 -12304 -8176
WIRE -12016 -8160 -12144 -8160
WIRE -11152 -8160 -11152 -8720
WIRE -11152 -8160 -12016 -8160
WIRE -12320 -8144 -12448 -8144
WIRE -12208 -8144 -12208 -9328
WIRE -12208 -8144 -12320 -8144
WIRE -10848 -8144 -10960 -8144
WIRE -9088 -8144 -9088 -9200
WIRE -9088 -8144 -10848 -8144
WIRE -11744 -8128 -11856 -8128
WIRE -10672 -8128 -10672 -8800
WIRE -10672 -8128 -11744 -8128
WIRE -12176 -8112 -12176 -8496
WIRE -12176 -8112 -13200 -8112
WIRE -12496 -8096 -12800 -8096
WIRE -12192 -8096 -12496 -8096
WIRE -11904 -8096 -12192 -8096
WIRE -11600 -8096 -11904 -8096
WIRE -11312 -8096 -11600 -8096
WIRE -11008 -8096 -11312 -8096
WIRE -10720 -8096 -11008 -8096
WIRE -8352 -8096 -8352 -10992
WIRE -8352 -8096 -10720 -8096
WIRE -11424 -8064 -11552 -8064
WIRE -10208 -8064 -10208 -8704
WIRE -10208 -8064 -11424 -8064
WIRE -11136 -8032 -11264 -8032
WIRE -9040 -8032 -9040 -9248
WIRE -9040 -8032 -11136 -8032
WIRE -9856 -8016 -10672 -8016
WIRE -9136 -8016 -9136 -9168
WIRE -9136 -8016 -9856 -8016
WIRE -11648 -8000 -11648 -8496
WIRE -11648 -8000 -12624 -8000
WIRE -12800 -7952 -12800 -8096
WIRE -12752 -7952 -12752 -8192
WIRE -12496 -7952 -12496 -8096
WIRE -12448 -7952 -12448 -8144
WIRE -12192 -7952 -12192 -8096
WIRE -12144 -7952 -12144 -8160
WIRE -11904 -7952 -11904 -8096
WIRE -11856 -7952 -11856 -8128
WIRE -11632 -7952 -11632 -8192
WIRE -11632 -7952 -11728 -7952
WIRE -11600 -7952 -11600 -8096
WIRE -11552 -7952 -11552 -8064
WIRE -11312 -7952 -11312 -8096
WIRE -11264 -7952 -11264 -8032
WIRE -11008 -7952 -11008 -8096
WIRE -10960 -7952 -10960 -8144
WIRE -10720 -7952 -10720 -8096
WIRE -10672 -7952 -10672 -8016
WIRE -12656 -7840 -12656 -8192
WIRE -12560 -7840 -12656 -7840
WIRE -12880 -7808 -12928 -7808
WIRE -12640 -7808 -12672 -7808
WIRE -12576 -7808 -12608 -7808
WIRE -12336 -7808 -12368 -7808
WIRE -12272 -7808 -12288 -7808
WIRE -12048 -7808 -12064 -7808
WIRE -11984 -7808 -12032 -7808
WIRE -11760 -7808 -11776 -7808
WIRE -11680 -7808 -11712 -7808
WIRE -11440 -7808 -11472 -7808
WIRE -11392 -7808 -11408 -7808
WIRE -11152 -7808 -11184 -7808
WIRE -11088 -7808 -11120 -7808
WIRE -10864 -7808 -10880 -7808
WIRE -10800 -7808 -10832 -7808
WIRE -10544 -7808 -10592 -7808
WIRE -10224 -7712 -10224 -8496
WIRE -10128 -7712 -10224 -7712
WIRE -12928 -7664 -12928 -7808
WIRE -12608 -7664 -12608 -7808
WIRE -12608 -7664 -12928 -7664
WIRE -12288 -7664 -12288 -7808
WIRE -12288 -7664 -12608 -7664
WIRE -12032 -7664 -12032 -7808
WIRE -12032 -7664 -12288 -7664
WIRE -11712 -7664 -11712 -7808
WIRE -11712 -7664 -12032 -7664
WIRE -11408 -7664 -11408 -7808
WIRE -11408 -7664 -11712 -7664
WIRE -11120 -7664 -11120 -7808
WIRE -11120 -7664 -11408 -7664
WIRE -10832 -7664 -10832 -7808
WIRE -10832 -7664 -11120 -7664
WIRE -10224 -7664 -10832 -7664
WIRE -12560 -7632 -12560 -7840
WIRE -12560 -7632 -12736 -7632
WIRE -12320 -7600 -12320 -8144
WIRE -12288 -7600 -12320 -7600
WIRE -11136 -7584 -11136 -8032
WIRE -11136 -7584 -11232 -7584
WIRE -9776 -7584 -9776 -8496
WIRE -9776 -7584 -10672 -7584
WIRE -12768 -7568 -12768 -7696
WIRE -12768 -7568 -14144 -7568
WIRE -11872 -7568 -11872 -7696
WIRE -11872 -7568 -12608 -7568
WIRE -12160 -7552 -12160 -7696
WIRE -12160 -7552 -13120 -7552
WIRE -12464 -7536 -12464 -7696
WIRE -12464 -7536 -13616 -7536
WIRE -11568 -7504 -11568 -7696
WIRE -11568 -7504 -12176 -7504
WIRE -12016 -7472 -12016 -8160
WIRE -12016 -7472 -12240 -7472
WIRE -10976 -7456 -10976 -7696
WIRE -10976 -7456 -11200 -7456
WIRE -13472 -7440 -14000 -7440
WIRE -13280 -7440 -13280 -8656
WIRE -13280 -7440 -13472 -7440
WIRE -12976 -7440 -13280 -7440
WIRE -12640 -7440 -12640 -7808
WIRE -12640 -7440 -12976 -7440
WIRE -12480 -7440 -12640 -7440
WIRE -12336 -7440 -12336 -7808
WIRE -12336 -7440 -12480 -7440
WIRE -12048 -7440 -12048 -7808
WIRE -12048 -7440 -12336 -7440
WIRE -12016 -7440 -12048 -7440
WIRE -11760 -7440 -11760 -7808
WIRE -11760 -7440 -12016 -7440
WIRE -11536 -7440 -11760 -7440
WIRE -11440 -7440 -11440 -7808
WIRE -11440 -7440 -11536 -7440
WIRE -11152 -7440 -11152 -7808
WIRE -11152 -7440 -11440 -7440
WIRE -11056 -7440 -11152 -7440
WIRE -10864 -7440 -10864 -7808
WIRE -10864 -7440 -11056 -7440
WIRE -10704 -7440 -10864 -7440
WIRE -10544 -7440 -10544 -7808
WIRE -10544 -7440 -10704 -7440
WIRE -10464 -7440 -10544 -7440
WIRE -11280 -7424 -11280 -7696
WIRE -11280 -7424 -11664 -7424
WIRE -14000 -7392 -14000 -7440
WIRE -11424 -7376 -11424 -8064
WIRE -11328 -7376 -11424 -7376
WIRE -11232 -7376 -11232 -7584
WIRE -11232 -7376 -11296 -7376
WIRE -13472 -7360 -13472 -7440
WIRE -12976 -7360 -12976 -7440
WIRE -12480 -7360 -12480 -7440
WIRE -12016 -7360 -12016 -7440
WIRE -11536 -7360 -11536 -7440
WIRE -11056 -7360 -11056 -7440
WIRE -14144 -7328 -14144 -7568
WIRE -14112 -7328 -14144 -7328
WIRE -13776 -7312 -13872 -7312
WIRE -10688 -7312 -10688 -7696
WIRE -10624 -7312 -10688 -7312
WIRE -9728 -7312 -10320 -7312
WIRE -14240 -7296 -14240 -8224
WIRE -14112 -7296 -14240 -7296
WIRE -13616 -7296 -13616 -7536
WIRE -13584 -7296 -13616 -7296
WIRE -13120 -7296 -13120 -7552
WIRE -13088 -7296 -13120 -7296
WIRE -12608 -7296 -12608 -7568
WIRE -12592 -7296 -12608 -7296
WIRE -12176 -7296 -12176 -7504
WIRE -12128 -7296 -12176 -7296
WIRE -11664 -7296 -11664 -7424
WIRE -11648 -7296 -11664 -7296
WIRE -11200 -7296 -11200 -7456
WIRE -11168 -7296 -11200 -7296
WIRE -13808 -7280 -13872 -7280
WIRE -13296 -7280 -13344 -7280
WIRE -12768 -7280 -12848 -7280
WIRE -12320 -7280 -12352 -7280
WIRE -11792 -7280 -11888 -7280
WIRE -11360 -7280 -11408 -7280
WIRE -10880 -7280 -10928 -7280
WIRE -13744 -7264 -13744 -8208
WIRE -13584 -7264 -13744 -7264
WIRE -13200 -7264 -13200 -8112
WIRE -13088 -7264 -13200 -7264
WIRE -12624 -7264 -12624 -8000
WIRE -12592 -7264 -12624 -7264
WIRE -12304 -7264 -12304 -8176
WIRE -12128 -7264 -12304 -7264
WIRE -11728 -7264 -11728 -7952
WIRE -11648 -7264 -11728 -7264
WIRE -11168 -7264 -11248 -7264
WIRE -13312 -7248 -13344 -7248
WIRE -12816 -7248 -12848 -7248
WIRE -12336 -7248 -12352 -7248
WIRE -11856 -7248 -11888 -7248
WIRE -11376 -7248 -11408 -7248
WIRE -10864 -7248 -10928 -7248
WIRE -10672 -7248 -10672 -7584
WIRE -10624 -7248 -10672 -7248
WIRE -10256 -7248 -10320 -7248
WIRE -13584 -7232 -13616 -7232
WIRE -13088 -7232 -13136 -7232
WIRE -12592 -7232 -12640 -7232
WIRE -12128 -7232 -12176 -7232
WIRE -11648 -7232 -11712 -7232
WIRE -11168 -7232 -11232 -7232
WIRE -12320 -7216 -12320 -7280
WIRE -12304 -7216 -12320 -7216
WIRE -13616 -7152 -13616 -7232
WIRE -12816 -7152 -12816 -7248
WIRE -12816 -7152 -13616 -7152
WIRE -12640 -7152 -12640 -7232
WIRE -11856 -7152 -11856 -7248
WIRE -11856 -7152 -12640 -7152
WIRE -11712 -7152 -11712 -7232
WIRE -10864 -7152 -10864 -7248
WIRE -10864 -7152 -11712 -7152
WIRE -12176 -7136 -12176 -7232
WIRE -11376 -7136 -11376 -7248
WIRE -11376 -7136 -12176 -7136
WIRE -11232 -7136 -11232 -7232
WIRE -10256 -7136 -10256 -7248
WIRE -10256 -7136 -11232 -7136
WIRE -14112 -7120 -14112 -7264
WIRE -13312 -7120 -13312 -7248
WIRE -13312 -7120 -14112 -7120
WIRE -13136 -7120 -13136 -7232
WIRE -12336 -7120 -12336 -7248
WIRE -12336 -7120 -13136 -7120
WIRE -14000 -7104 -14000 -7200
WIRE -13472 -7104 -13472 -7168
WIRE -13472 -7104 -14000 -7104
WIRE -12976 -7104 -12976 -7168
WIRE -12976 -7104 -13472 -7104
WIRE -12480 -7104 -12480 -7168
WIRE -12480 -7104 -12976 -7104
WIRE -12016 -7104 -12016 -7168
WIRE -12016 -7104 -12480 -7104
WIRE -11536 -7104 -11536 -7168
WIRE -11536 -7104 -12016 -7104
WIRE -11056 -7104 -11056 -7168
WIRE -11056 -7104 -11536 -7104
WIRE -10464 -7104 -10464 -7120
WIRE -10464 -7104 -11056 -7104
WIRE -10224 -7104 -10224 -7664
WIRE -10224 -7104 -10464 -7104
WIRE -9968 -7104 -9968 -8256
WIRE -9968 -7104 -10224 -7104
WIRE -11248 -7056 -11248 -7264
WIRE -10128 -7056 -10128 -7712
WIRE -10128 -7056 -11248 -7056
WIRE -10880 -7024 -10880 -7280
WIRE -10672 -7024 -10880 -7024
WIRE -11360 -7008 -11360 -7280
WIRE -11360 -7008 -11568 -7008
WIRE -13808 -6992 -13808 -7280
WIRE -13808 -6992 -14176 -6992
WIRE -12304 -6976 -12304 -7216
WIRE -12304 -6976 -12464 -6976
WIRE -11888 -6944 -12000 -6944
WIRE -11744 -6944 -11744 -8128
WIRE -11744 -6944 -11888 -6944
WIRE -12592 -6928 -13344 -6928
WIRE -12288 -6928 -12288 -7600
WIRE -12288 -6928 -12592 -6928
WIRE -10992 -6912 -11120 -6912
WIRE -10848 -6912 -10848 -8144
WIRE -10848 -6912 -10992 -6912
WIRE -12896 -6880 -13648 -6880